Version 4
SHEET 1 932 680
WIRE 336 32 96 32
WIRE 336 64 336 32
WIRE 96 80 96 32
WIRE 96 224 96 160
WIRE 336 224 336 192
FLAG 96 224 0
FLAG 336 224 0
SYMBOL voltage 96 64 R0
WINDOW 123 0 0 Left 0
WINDOW 39 0 0 Left 0
SYMATTR InstName V1
SYMATTR Value SINE(0 10 1)
SYMBOL ts 336 128 R0
SYMATTR InstName U1
TEXT 824 112 Left 2 !.inc ts.lib
TEXT 62 248 Left 2 !.tran 1
